**$ENCRYPTED_LIB
**$INTERFACE
*$
* TLV75533P
*****************************************************************************
* (C) Copyright 2018 Texas Instruments Incorporated. All rights reserved.
*****************************************************************************
** This model is designed as an aid for customers of Texas Instruments.
** TI and its licensors and suppliers make no warranties, either expressed
** or implied, with respect to this model, including the warranties of
** merchantability or fitness for a particular purpose. The model is
** provided solely on an "as is" basis. The entire risk as to its quality
** and performance is with the customer.
*****************************************************************************
*
** Released by: WEBENCH Design Center, Texas Instruments Inc.
* Part: TLV75533P
* Date: 05MAR2018
* Model Type: Transient
* Simulator: PSPICE
* Simulator Version: 16.2.0.s003
* EVM Order Number:
* EVM Users Guide:
* Datasheet:
*
* Model Version: Final 1.00
*
*****************************************************************************
*
* Updates:
*
* Final 1.00
* Release to Web
*
*****************************************************************************
* Model Usage Notes:
*
* 1. The following features have been modeled
*      a. Start-up behaviour is modeled
*      b. Line transients 
*      c. Load transients
*      d. Current Limit and current foldback is modeled
*      e. PSRR is modeled only till 1st pole and 1st Zero (Model limitation)
* 2. Quiescent current, noise characteristics and temperature effects are not modeled
*****************************************************************************
*$
.SUBCKT TLV75533P_TRANS EN GND VIN VOUT NC
$CDNENCSTART
eee8c5c7a2bc4b01f045f303678664e7916da0bae22e8cb0bba041dd67c69ce448ea70148a9ac1670c8926c1ac5057c8ccfcd77bf87ca9dcf430257fdad87a41
e0555798e9c8dcc71f1724e5f6fadc91c2fae1044039ab74b7aae8e511dd90379e95dd3ed16283b3f4d2b85f27246face7c73307836a1a84a4db5679e7914ebe
c43ca65fb3926f3b26c880f485e2ca3443e01674667ecbfe480b083f93abc69fc2fae1044039ab74b7aae8e511dd90379e95dd3ed16283b3442adf8b0be86a4a
b8b56863f55c875e94fbbbfac28a5c5cb686a80b117e185d78b54ce720b1001e5702f8045be5988d48c4805203a5c1378789378a6c80a28352d7dfd924ddfdbc
c0ff0c48b49f7f33089b2a21279ca8a4912d63aba3d64266dd60d5e76b98a370478a87bc5b8e6cf923f363b602b1468cb5d159a05598fd5e7fe7c1ebbe09f445
5c2e262d493b312ff73e0c5051b95e15352d45f9e6d264a3ec673e334d6e7ccd24fdfd9bb2e10b07ec178f095419e3ce4c3ec77b6553328eef350c41509ce651
61f0acdd6f1a2e9945cb00bd1bcc11355125dbca215ca0b078b54ce720b1001e7cdcf61de42ce3d848c4805203a5c1378789378a6c80a28352d7dfd924ddfdbc
23ee73d6065f36415dc3027291b7f5cee99e78b3695a091f56bfede5d11cc7ca8789378a6c80a283051a483e78d4786afc24b7887e925a415d93857aa7e4ad61
b052355e65d40bda4d945ab16ce19c1cf94f38472446ffb0fb8da9eef24319c0008404c01fd0380ee96826b1b8137c4aec178f095419e3ced78497b1bb756419
102778d1f868b7a49e6b95464fb772f3f67259042900919200877b91cd4279f36d7feadbed3dd3e698f6b084c7382e21e71f71e187584171873c53b75427a13b
fe9073afece57ff8706b807646b80371dacd9b8d1ddf22df8492e52ca9907137c32e32cca6618f9ff59c88a9d6b2d784e76e3609539e7e4df44496155f03ed4f
93d3808648446fd760c210771409cb2e6d636f62dc811967b531fdb8889633b4bf1ee911780421dde61166e05edde56fa0dc508fadf8822466c9b41b7a6fde47
98b5f0d56fa74586371dd2737e0b85bb0c4e92d435cb40c0725e6567209a5ca9bfc8bb3d35a02f1d644126c9831a96bdb866f2da412180d3e63e2bfcb5457431
ddf70eae3b592905a60fd3951de4fe94b309733b1125fd1e3b79d1cd0e073c32ec178f095419e3ce4c3ec77b6553328e61d106c4077e2fd7ec7658cf4ff0ba1f
b0eb42ca922cce592fbfcc2b872ff946c4e617f79c4322b4ce5ec34e6f8ad1ca4a00a148cfaed3410e1c6dbc21277e772594fc6756c8b3f583a3a146f650f598
39438c6af260813937080f586b2fbb9f644126c9831a96bdb866f2da412180d3c1ea9ab9174a18f30b21184049863ff9ba4a7058d4da848188f2ffb5e61c1a25
3e2f6d3b6fa1f79e8789378a6c80a283051a483e78d4786afc24b7887e925a41c18cd8c5d2693ec2600dc780cf415d022ebaf9394e79651cc1a65347e847e46c
240cf6a83072ff1a78549b72707c86137ae4e90232dda0a599b87aceb23e86975bebda023e3dc91e2fd4a791317eac017f38018be15edcf529ff25a87cf8b715
7b5177aa7c9c35b2acf69660beff72238ea774ea2c81d4e35ba5e1c8845f1a7f3b8ae5dce388c9c684b38a7aaf0f46858b68d283924283038e270d182b4fa949
ebfebc87f39f38ef355d712eec670d1ad0cf10be4769944ff21e73a70f43859a8ab92a32a73b6a0412165ab0fc5c6d2723699826d7e876b64a79d5ad43c246c8
7aff1ed175018062a60fd3951de4fe946d636f62dc8119674f785f79d346b9a923f363b602b1468cb5d159a05598fd5e8d200a0fab107f6a0b24cb790f39c107
e0bee0f3fadd672460c210771409cb2e6d636f62dc811967f24bf58ddadd36c75fbceec05a2e4b3f7d7f15953a32e2dc23f363b602b1468c7c0ee5ad9fe96e00
857620ce20ef86cb26c880f485e2ca34c2c08ae4637264e8ec673e334d6e7ccd24fdfd9bb2e10b07ec178f095419e3ce4c3ec77b6553328eef350c41509ce651
48a94d11d238250f34ae71442eb85210ccb2db67557ffe514ce40cdf06e8c6d22c58fc11c319e74eb270b53054ba30ba8789378a6c80a28352d7dfd924ddfdbc
abc05a84349f7fe5429f077ac473616dfa6f00a025751d7534e8288ee6ff77ac23f363b602b1468cb5d159a05598fd5e8d200a0fab107f6a0b24cb790f39c107
62748d827ca277c7706b807646b8037142db3307ab4598a18492e52ca990713748a9367c0f462766fea6aa584ac92df060034e7210f5716c5e6a773a2a19a68b
4178896ff3d92a21e61166e05edde56fa0dc508fadf882249af659d8090e1ed2bd6338e3af7233c86597e8a130d8d0e8782a1e33a062c0f61f7c0e8318ec0ea6
236e251679843c844b6fbc96d579bd7c99c91e8fcd10b99023f363b602b1468cb5d159a05598fd5e8d200a0fab107f6a774c61171d202b6669ff3aa68246a535
2f646e0e8d7ca9fb860341bb47536c89d3c6f4cd3b9e53669f7df7e1d853713798709113e7ea04d2b5f1c17ee7956303e61166e05edde56f703eb26dcff20197
e83d563d614d5ce9a2f169dd7cb88344d8477d443f20daa9f0513dc6741f95c1478a87bc5b8e6cf923f363b602b1468cb5d159a05598fd5e7fe7c1ebbe09f445
394197bedeb77a71acab1d0766be876cbac8dac2572dd653e65f9ae0c55f43cf7f38018be15edcf54175b8aa53329e2952d007cec9149cfd694ac15997f43786
705d459f50f7a08ca2f169dd7cb88344af02b8d90c64a20083463dd640f012e500d3e0b087c737448789378a6c80a283051a483e78d4786a910bc5062bc06ed8
171d979aaf3d706b8036d105784414182421587c0f57824d5a959fcae03457aa81cbfb94148d3e8d23f363b602b1468cb5d159a05598fd5e7fe7c1ebbe09f445
86ad213343ec82a92c4cbab0291893203ce9cec0b01d2be1d52509d1cc72a26f23b782b3d6a37df1c2fae1044039ab74b7aae8e511dd90375bf81114a4a33fa5
904e90e8e5b2fbfdb9d15c5be4e02d4918754e13dba8dbd33fcc20578536d17e644126c9831a96bdb866f2da412180d3c1ea9ab9174a18f31d305b4f003f3643
71dbbe87e53e082f6bcee8ad8ed07faf3281bb725ddada6fbcfdbad4c7a0b23d9c99a6f8ecce348375963efd3ee34e16b032015482838020199902ef25e0ffab
d24b51ea77d68888c2fae1044039ab74b7aae8e511dd90379e95dd3ed16283b3f4d2b85f27246face7c73307836a1a84d670fc29986e087fd77f8f1f49ca8bc7
4b6085f2012636678ee5eab1ce21437bd80d314f38da284523f363b602b1468cb5d159a05598fd5e8d200a0fab107f6a774c61171d202b6669ff3aa68246a535
717cdf892ff6b6ffa60fd3951de4fe94f62cc45356863029bf1ee911780421dde61166e05edde56fa0dc508fadf882249af659d8090e1ed2d72dc0c52ae484d6
c9df73872fc60450f79767d8efdc77048036d10578441418c3b36018e345e16e6f29f8b78d86db52c95c6e3ee2b90bc6d0cf10be4769944f8dae796cbaee862d
316c4e958281b8050abfc569c2f15564b686a80b117e185d78b54ce720b1001e5b9f79f666c8fe0048c4805203a5c1378789378a6c80a28352d7dfd924ddfdbc
bcd47878fdf46051706b807646b80371d9912f0ed63e5bff8492e52ca9907137c32e32cca6618f9f9fa6b642e2d18952979dbba800cff9b54049f3fd4cc90946
0bea72d0f2f0eb2f6bd8d7757d96eb9323f363b602b1468cb5d159a05598fd5e8d200a0fab107f6a774c61171d202b66b8312a1a45ad3aab2f22d51fd3e17a52
3e2f6d3b6fa1f79e8789378a6c80a283051a483e78d4786afc24b7887e925a41c18cd8c5d2693ec2600dc780cf415d022ebaf9394e79651cc1a65347e847e46c
afe317ae10e9815545cb00bd1bcc1135dec8b062d0e05d598f6dd2193866e5229a5982dadb14b2811bed22bcf1a3040bff4ab1e2b51982fdbacb2cd8558a8a3b
d783e5d1b9d09e03dd06c2baef735cae36806a8e381bf9a0b866f2da412180d3c1ea9ab9174a18f30b21184049863ff9ba4a7058d4da848188f2ffb5e61c1a25
8767f397bff4c3a731bbfa71d5efb6fe825b843a3aa9ddcd8789378a6c80a283051a483e78d4786afc24b7887e925a41c18cd8c5d2693ec2a2c8ac4c4e02ef31
3b59b36ad64eb586089b2a21279ca8a4214c1f1a36eb83a5bfa5b5b47ce928f1478a87bc5b8e6cf923f363b602b1468cb5d159a05598fd5e7fe7c1ebbe09f445
f80a395284a571112fbfcc2b872ff946e00e80a1258e7bf6ce5ec34e6f8ad1caa70718c54ca105391764c88c178ac69b6d2aa86b77a26c951aabfa10941d45cf
2a76c18f665e8c272c4cbab029189320d042b92eba138a7c9f7df7e1d8537137dc26028ef70590f4b5f1c17ee7956303e61166e05edde56f703eb26dcff20197
a3ce589fda26bc39706b807646b803712cb03a6bb748c07b8b28155138fe548ad53698db8c1cb0e024fdfd9bb2e10b07ec178f095419e3ced78497b1bb756419
44f945d11fc32323706b807646b80371b280954f47ecd1ab60b51f64d7f78a99b7fb991056f628821cb2dfc0f36100845911b2e9db277617789dfe9e3750721c
f448aa8b445158d3c55c8187f39b70bee61166e05edde56fa0dc508fadf882249af659d8090e1ed2bd6338e3af7233c86597e8a130d8d0e8adb0f98ca06332a2
4b6085f2012636678ee5eab1ce21437bd80d314f38da284523f363b602b1468cb5d159a05598fd5e8d200a0fab107f6a774c61171d202b6669ff3aa68246a535
e9f419af62bfe95ebc27f931268b40618fa97f4081b734eb380523057ca53eeef182b98fc749cfc2ab6a91e907f651e20e0446bbe4cd6ef69d6bedf9d0034ac8
5d078000650a8fa54ef0dc8567d6d4ea1d8239f2d1a53635e60e6d4808ee42280794cbd97559f929d0cf10be4769944ff21e73a70f43859ae010f504b9a5b3ea
8df0563ff6b12bcb706b807646b80371c40db3808310b1468d5aa40cb2332d6f855e487a2800314be61166e05edde56fa0dc508fadf8822466c9b41b7a6fde47
02dac6cba784505e706b807646b80371861b4b276dab09e144d489802dad2e3ac5ce994669c4ca881d8b5a7334a1d337ef1d7357d3c4e2f39d6bedf9d0034ac8
0be1bd08545f4ec3706b807646b803717ee185fad2d8da6d07a7115a301f151c7f38018be15edcf54175b8aa53329e2952d007cec9149cfd694ac15997f43786
a5d158a0fc11634f706b807646b80371861b4b276dab09e1d15db477e5eff7e4644126c9831a96bdb866f2da412180d3c1ea9ab9174a18f31d305b4f003f3643
9e700d1bd10bd6d1706b807646b80371804d11ae975104d1cd101b2bcbb8a35ed1e4bc94207cac569c6130a6298f9a49baa78b47fb353ab3873c53b75427a13b
e9f419af62bfe95edca29065f7b4a684696ce76c04a2281e749d13634498f34b6f49004d18e3f79af31b5239ad0366cace735722d942bfaa9caba4098f5ad283
0a64f9ed19826bc8f823b28427695945e61166e05edde56fa0dc508fadf882249af659d8090e1ed2bd6338e3af7233c86597e8a130d8d0e8adb0f98ca06332a2
8567fa61d0589ca2c1fb5ea162ffd514e71f71e187584171b866f2da412180d3c1ea9ab9174a18f30b21184049863ff9ba4a7058d4da848188f2ffb5e61c1a25
6dcc2999c2dfe559706b807646b8037133d7a29d0c0eba89727206ac9aa0f0137f38018be15edcf54175b8aa53329e2952d007cec9149cfd694ac15997f43786
e018450987109d3e706b807646b803712c8fce4fe11cffed06893d1f608340c31a57e3204fc8087fd1c2289b629e498c20fcb3273ffa61a988bd83521ee3fbb5
75963efd3ee34e16b03201548283802023f363b602b1468cb5d159a05598fd5e8d200a0fab107f6a774c61171d202b66b8312a1a45ad3aab2f22d51fd3e17a52
bbf0a766f49a242c2637e9cac2aa5cea2cecad1ebf804c4bf467148f06ca8e43e61166e05edde56fa0dc508fadf882249af659d8090e1ed2d72dc0c52ae484d6
6bc6bcfc0cf717f3706b807646b80371a6796875edca394de5a3808b4a825ffc614321273f5a9675e61166e05edde56fa0dc508fadf8822466c9b41b7a6fde47
2671091ba70d1568706b807646b80371b280954f47ecd1ab1e17c7b4e316d2bedb3860ddecd341949c99a6f8ecce348375963efd3ee34e160ff63032dc4e41c4
bfd81d659a09e4b3d24b51ea77d68888c2fae1044039ab74b7aae8e511dd90379e95dd3ed16283b3f4d2b85f27246face7c73307836a1a84a4db5679e7914ebe
4b6085f2012636678ee5eab1ce21437bd80d314f38da284523f363b602b1468cb5d159a05598fd5e8d200a0fab107f6a774c61171d202b6669ff3aa68246a535
4130590ac940df72706b807646b8037112d5414bf961bf12c0bbe83b3fffa2d11698b44d876bafce81d89e1552d1863e2aa54f3b2849289a8e75c1b5a4d8f232
d2bbd7e847d638e1f9160e96a49a6a05e61166e05edde56fa0dc508fadf882249af659d8090e1ed2bd6338e3af7233c86597e8a130d8d0e8adb0f98ca06332a2
cdaa385411811e27bfd81d659a09e4b32637e9cac2aa5cea2cecad1ebf804c4bf467148f06ca8e43e61166e05edde56fa0dc508fadf8822466c9b41b7a6fde47
385bb969478bc1fd7509c136893a3e2e94193691b56f43268aac013a2ff8300ceb5ed70b759f10037003decd7bc2e4146f03fdb6c92924ab9fc311d43d1ceb29
87b83271a22a80b5ec178f095419e3ce4c3ec77b6553328e61d106c4077e2fd7b7f233935db61baced7edeeb98ae67b33dec1f49642ea6470058822dc060a4db
6700a2a6ef06102539f254a10daf15d6ef05e0b458617e73b4920ce1b9c63206e73070a45f1d549cec178f095419e3ce4c3ec77b6553328eef350c41509ce651
f28257b2a3730294706b807646b80371861b4b276dab09e197987b17ecd08bbf644126c9831a96bdb866f2da412180d3c1ea9ab9174a18f31d305b4f003f3643
6dcfb6d5e8929f04706b807646b8037110fe20894a82e47899b87aceb23e86970c7e012bffe34f9d2fd4a791317eac017f38018be15edcf529ff25a87cf8b715
a2bd26f49371f367d4ce5bd4c9f4d414f6c57157062f5a99b866f2da412180d3c1ea9ab9174a18f30b21184049863ff9ba4a7058d4da848188f2ffb5e61c1a25
5aa875be979324eb706b807646b8037106893d1f608340c31325fee8f24ce546e71f71e187584171b866f2da412180d3c1ea9ab9174a18f31d305b4f003f3643
e9f419af62bfe95ecc0121b5e20e20768fa97f4081b734eba7cfcd18bd4e33ff9f7df7e1d8537137725f3942cf9af36879fa8bd2ed2304c324784f5d7952cf88
0a74212461f65cb9c0313f4b89f5b9a390d894e2512433315b102e47ac4eb17e8789378a6c80a283051a483e78d4786afc24b7887e925a415d93857aa7e4ad61
bc8ee2299b220803beda7935c8aeca8d90d894e251243331dc0745283a910a9dd0cf10be4769944ff21e73a70f43859a8ab92a32a73b6a046b92696e09803c56
54653036f112a7e5706b807646b803712d7f20e5a60456a312d228206cc2517b49d8906c975eba3c62d766f77596a54b7f38018be15edcf529ff25a87cf8b715
69ff18044fae7c89706b807646b80371686f14ac68dae58859f89640fdd201167f38018be15edcf54175b8aa53329e2952d007cec9149cfd694ac15997f43786
07b8b607253a07a2706b807646b80371e00f6ba94ccb4f0f3ebc1fe92a4361c378b54ce720b1001e182e21f53447aa58f68fa22228a305e8d38aff4e12555a5d
615a28c46d723740a2f169dd7cb88344d1eba1bd85eddbc90a0ec22218277ba4bf1ee911780421dde61166e05edde56fa0dc508fadf8822466c9b41b7a6fde47
bedb4c285028d38910a5fcbe7a8691e3083ee8af2c4e47f9b4da617ea7d06be89e92269ee3608b324d5b1b73307b1303ec178f095419e3ced78497b1bb756419
9afa1f10a7f457ea64b4cb8e83300d9cd91a71f8ed5e51de86707e28cae807f207519d1cb35cd113d0cf10be4769944ff21e73a70f43859ae010f504b9a5b3ea
b90e0c5fe970b38760c210771409cb2e9bb70e3b41a50c4a51785ede25309db7eff1ef0305927f232aa542088768718dcd906585811797c7950f248c5a47035a
04f5acd939422ec02fbfcc2b872ff9463bd3da828a87f528ce5ec34e6f8ad1ca6e02cd619ff2cf87d82cd2fae38596b4dcd0c890a99377dc1af7aece1e7aed96
4aadbb34bb5babb823f363b602b1468cb5d159a05598fd5e8d200a0fab107f6a774c61171d202b66b8312a1a45ad3aab2728b733ec3644d1578720c8b6e1d16e
fce32b9a46bbe77af8e018261c6aad4f2c1a517dfbbaea57abcd459548d990c6e71f71e187584171b866f2da412180d3c1ea9ab9174a18f31d305b4f003f3643
2cfd781695004e3812a8e968d6c08cbfa8b96c3c9f1819090b477b26a1c988f90505f7aa172b925f86c1381f519db5d4808fe96de54fc8930e59a82f566bb76c
0a0603cf79d318449aacae35e521587ab866f2da412180d3c1ea9ab9174a18f30b21184049863ff9ba4a7058d4da8481a13cd59e92cec141189cc806f12076ec
62de40c9486cbee4797509078a632bf53a19ff719523ffc9f72ed6320d1e67dd24498a506a69fa92af786b4a9526bec3f79ed346fe02bf5d873c53b75427a13b
$CDNENCFINISH
.ENDS TLV75533P_TRANS
*$
.subckt TLV75533P_S2 1 2 3 4  
$CDNENCSTART
eee8c5c7a2bc4b01f045f303678664e7916da0bae22e8cb0bba041dd67c69ce448ea70148a9ac1670c8926c1ac5057c8ccfcd77bf87ca9dcf430257fdad87a41
c21144fd15b2c61331820e631d1d1d7423f284e2e346bfb823f363b602b1468cb5d159a05598fd5e8d200a0fab107f6a774c61171d202b6669ff3aa68246a535
e07b7a6acd4bf43c6f31076d2b37e96baa35006d782c6ce98789378a6c80a283051a483e78d4786afc24b7887e925a41c18cd8c5d2693ec2a2c8ac4c4e02ef31
1e7e75f62a07f7b1bbcb463bf6330e44eff574bcdcb677aa0ffb76e2ddf4497b184d8190fada24a98f182a59499ce64056d61c3bc288fdfa0f6691c12875d46b
$CDNENCFINISH
.ends TLV75533P_S2
*$
.subckt TLV75533P_S3 1 2 3 4  
$CDNENCSTART
eee8c5c7a2bc4b01f045f303678664e7916da0bae22e8cb0bba041dd67c69ce448ea70148a9ac1670c8926c1ac5057c8ccfcd77bf87ca9dcf430257fdad87a41
49437a5c2c000e5531820e631d1d1d7451c16968e1146dc523f363b602b1468cb5d159a05598fd5e8d200a0fab107f6a774c61171d202b6669ff3aa68246a535
196545b3a77859896f31076d2b37e96baa35006d782c6ce98789378a6c80a283051a483e78d4786afc24b7887e925a41c18cd8c5d2693ec2a2c8ac4c4e02ef31
1e7e75f62a07f7b1bbcb463bf6330e449fca2d09a1602b870ffb76e2ddf4497bc57cfae156c3adf48e5e1fe45d9e77f1e95ccae7279650a8d3b55e518a88efc0
$CDNENCFINISH
.ends TLV75533P_S3
*$
.subckt TLV75533P_S1 1 2 3 4  
$CDNENCSTART
eee8c5c7a2bc4b01f045f303678664e7916da0bae22e8cb0bba041dd67c69ce448ea70148a9ac1670c8926c1ac5057c8ccfcd77bf87ca9dcf430257fdad87a41
44f117741689d59131820e631d1d1d749e35700c7913e93923f363b602b1468cb5d159a05598fd5e8d200a0fab107f6a774c61171d202b6669ff3aa68246a535
3c76beba9b808c126f31076d2b37e96baa35006d782c6ce98789378a6c80a283051a483e78d4786afc24b7887e925a41c18cd8c5d2693ec2a2c8ac4c4e02ef31
1e7e75f62a07f7b1bbcb463bf6330e447b3ba2fd65dbf9050ffb76e2ddf4497bc57cfae156c3adf48e5e1fe45d9e77f1e95ccae7279650a8d3b55e518a88efc0
$CDNENCFINISH
.ends TLV75533P_S1
*$
.subckt TLV75533P_H2 1 2 3 4  
$CDNENCSTART
eee8c5c7a2bc4b01f045f303678664e7916da0bae22e8cb0bba041dd67c69ce448ea70148a9ac1670c8926c1ac5057c8ccfcd77bf87ca9dcf430257fdad87a41
a2c6d4276581f43b31820e631d1d1d74e2b5c77e8ecaba9623f363b602b1468cb5d159a05598fd5e8d200a0fab107f6a774c61171d202b6669ff3aa68246a535
9c9fc54f66c2cffa6f31076d2b37e96b3a7bc5327c69eeaf8789378a6c80a283051a483e78d4786afc24b7887e925a41c18cd8c5d2693ec2a2c8ac4c4e02ef31
$CDNENCFINISH
.ends TLV75533P_H2
*$
.subckt TLV75533P_F1 1 2 3 4  
$CDNENCSTART
eee8c5c7a2bc4b01f045f303678664e7916da0bae22e8cb0bba041dd67c69ce448ea70148a9ac1670c8926c1ac5057c8ccfcd77bf87ca9dcf430257fdad87a41
ae601cf82fbefc0c31820e631d1d1d74872d6da6e74e75ee23f363b602b1468cb5d159a05598fd5e8d200a0fab107f6a774c61171d202b6669ff3aa68246a535
969b68e4450fa8bd6f31076d2b37e96b3a7bc5327c69eeaf8789378a6c80a283051a483e78d4786afc24b7887e925a41c18cd8c5d2693ec2a2c8ac4c4e02ef31
$CDNENCFINISH
.ends TLV75533P_F1
*$
.SUBCKT COMPHYS_BASIC_GEN INP INM HYS OUT PARAMS: VDD=1 VSS=0 VTHRESH=0.5	
$CDNENCSTART
eee8c5c7a2bc4b01f045f303678664e7916da0bae22e8cb0bba041dd67c69ce448ea70148a9ac1670c8926c1ac5057c8ccfcd77bf87ca9dcf430257fdad87a41
9132b7121104d4358be44c41ab888f41b6e3a1568843d86723f363b602b1468cb5d159a05598fd5e8d200a0fab107f6a774c61171d202b6669ff3aa68246a535
70d49a25931fcad5af5f0f227a33dfc56b574213c15e8d8904d73209bd6cb354e07469d76c73f504727902e71a3e75d8bb77e20fe987edd8d38aff4e12555a5d
d1579de13894cc53749d13634498f34b2814ec203481f38f6485690991963efc688dc2cfc32ec3a9609956094a2f05290f82827fc36822f08b3124f4fe24c243
c985c90e830fff9457e2c5aa80851370e61166e05edde56fa0dc508fadf882249af659d8090e1ed2bd6338e3af7233c86597e8a130d8d0e8adb0f98ca06332a2
1fdb31c906bbcd7763285b2908224391b866f2da412180d3c1ea9ab9174a18f30b21184049863ff9ba4a7058d4da8481a13cd59e92cec141189cc806f12076ec
13142c038a62aa150aa66cfdd7abddd77f38018be15edcf54175b8aa53329e2952d007cec9149cfdb3c7cedb0e782c1436c1a878486ae44a4097389f555bce33
$CDNENCFINISH
.ENDS COMPHYS_BASIC_GEN
*$
.SUBCKT D_D1 1 2
$CDNENCSTART
eee8c5c7a2bc4b01f045f303678664e7916da0bae22e8cb0bba041dd67c69ce448ea70148a9ac1670c8926c1ac5057c8ccfcd77bf87ca9dcf430257fdad87a41
b3390a098a7d87064e46dd92806239d2e61166e05edde56fa0dc508fadf882249af659d8090e1ed2bd6338e3af7233c86597e8a130d8d0e8adb0f98ca06332a2
d7072740a938f0e752008c48b90a111404d36cec99b77dc0a7f03d1e581742ea8b798ad314fde7ff78bb0ee6e0e668e4d0cf10be4769944f8dae796cbaee862d
$CDNENCFINISH
.ENDS D_D1
*$
.SUBCKT BUF_DELAY_BASIC_GEN A  Y PARAMS: VDD=1 VSS=0 VTHRESH=0.5 DELAY = 10n 
$CDNENCSTART
eee8c5c7a2bc4b01f045f303678664e7916da0bae22e8cb0bba041dd67c69ce448ea70148a9ac1670c8926c1ac5057c8ccfcd77bf87ca9dcf430257fdad87a41
f305b7cfa0765161b7a8d0a5fa27600f87c337a6226f9c259ce2376dcef929e055e2d3dce1717d717ca80a2ba8175d7ecf49909a32f1b23e24784f5d7952cf88
7e21bb79cbca9f8ce0c67063107b52eb23f363b602b1468cb5d159a05598fd5e8d200a0fab107f6a774c61171d202b66b8312a1a45ad3aab2f22d51fd3e17a52
bd9831b9881f0b92004c220067cfdabf57e2c5aa80851370e61166e05edde56fa0dc508fadf882249af659d8090e1ed2bd6338e3af7233c86458165167c43c26
99cb3fa3ad4040ee39d350e60ca2338a43558a6d1f49bc8923f363b602b1468cb5d159a05598fd5e8d200a0fab107f6a774c61171d202b6669ff3aa68246a535
f305b7cfa0765161c36180965553170d8da13727b91264449ce2376dcef929e07d4a1829490ab8db9b0e7c0027d2abb9e6efecb6122f9b38d38aff4e12555a5d
7e21bb79cbca9f8ce0c67063107b52eb23f363b602b1468cb5d159a05598fd5e8d200a0fab107f6a774c61171d202b66b8312a1a45ad3aab2f22d51fd3e17a52
8d3568177ac8ace9a0338d780f826fc67f38018be15edcf54175b8aa53329e2952d007cec9149cfdb3c7cedb0e782c1436c1a878486ae44a4097389f555bce33
042d1e8ae349b80f5801d29f353ff6688789378a6c80a283051a483e78d4786afc24b7887e925a41c18cd8c5d2693ec2600dc780cf415d020e6ff702acfd80bc
$CDNENCFINISH
.ENDS BUF_DELAY_BASIC_GEN
*$
.SUBCKT AND2_BASIC_GEN A B Y PARAMS: VDD=1 VSS=0 VTHRESH=0.5 
$CDNENCSTART
eee8c5c7a2bc4b01f045f303678664e7916da0bae22e8cb0bba041dd67c69ce448ea70148a9ac1670c8926c1ac5057c8ccfcd77bf87ca9dcf430257fdad87a41
f305b7cfa07651615a9037c8c42a602b94aebb18efc1b73c4a0534bc16c6b751d67091752c09698a1541fe9d381cc675621f57e8bf9b586e24784f5d7952cf88
ce312808b0a91175dcf306adebf133c01a6c7500361cb5a45652e10015a645e7e71f71e187584171b866f2da412180d3c1ea9ab9174a18f31d305b4f003f3643
bd9831b9881f0b92e8f02e93fcf213a8d0cf10be4769944ff21e73a70f43859a8ab92a32a73b6a0412165ab0fc5c6d2723699826d7e876b64a79d5ad43c246c8
02f2959404528fbd9ad2dc2e0af5de0eec178f095419e3ce4c3ec77b6553328e61d106c4077e2fd7b7f233935db61baced7edeeb98ae67b3b1e6f2ac1107794d
$CDNENCFINISH
.ENDS AND2_BASIC_GEN

*$
.SUBCKT SRLATCHRHP_BASIC_GEN S R Q QB PARAMS: VDD=1 VSS=0 VTHRESH=0.5  
$CDNENCSTART
eee8c5c7a2bc4b01f045f303678664e7916da0bae22e8cb0bba041dd67c69ce448ea70148a9ac1670c8926c1ac5057c8ccfcd77bf87ca9dcf430257fdad87a41
08e147163f37b483eb1553db51121b0af03ffeaf6f4cc2495403a992dada814087dbbe4c721b28118ac3abcaf6d8f63e75c06ff6952a82ffe54dea19fa791efd
030b252e024c556cc2fae1044039ab74b7aae8e511dd90379e95dd3ed16283b3f4d2b85f27246face7c73307836a1a84d670fc29986e087fd77f8f1f49ca8bc7
a405048fcac30c1a77b95916f96d463b23f363b602b1468cb5d159a05598fd5e8d200a0fab107f6a774c61171d202b66b8312a1a45ad3aab2f22d51fd3e17a52
b75a50bb44e3b503f2667b5cb330c5cf7d9a27b91a009a4ad0cf10be4769944ff21e73a70f43859a8ab92a32a73b6a0412165ab0fc5c6d27a9fcc72f31162e04
1033be605ac86fd802147ff4d5c4cb2f4f8181b227c1b6b58789378a6c80a283051a483e78d4786afc24b7887e925a41c18cd8c5d2693ec2a2c8ac4c4e02ef31
4d7ee7dde33e9387d311a5de088d45a57f38018be15edcf54175b8aa53329e2952d007cec9149cfdb3c7cedb0e782c1436c1a878486ae44a4097389f555bce33
df95d7fdcea3a2180d504e4cc1a75a093ae2468b9ecaccb9c2fae1044039ab74b7aae8e511dd90379e95dd3ed16283b3f4d2b85f27246fac80d8e7f9e031354b
193c989aae9fedb66f74756715268570bf1ee911780421dde61166e05edde56fa0dc508fadf882249af659d8090e1ed2bd6338e3af7233c86458165167c43c26
99fafaa2580fb990086c1f20d6d180eb303d7240d8c3139de61166e05edde56fa0dc508fadf882249af659d8090e1ed2bd6338e3af7233c86458165167c43c26
b8c0b98b8ee14d0e86fb6fea0644b392d2bbd7e847d638e1e776e9b255bda08c858b231094abeea61f9a9c561ad56bf1e3c1957d735cf1403eb0abf7d3e723a6
5c58db27c3805ea579ec59d2010a8d85ec178f095419e3ce4c3ec77b6553328e61d106c4077e2fd7b7f233935db61baced7edeeb98ae67b3b1e6f2ac1107794d
7e2980978c86958c5a2203ebe700ca12c2fae1044039ab74b7aae8e511dd90379e95dd3ed16283b3f4d2b85f27246face7c73307836a1a84a4db5679e7914ebe
161224ee3eeadb9c8492e52ca99071370aa8feaa9dcff1516e87bca1c6f42fe3e8a5dce5e40df7ad937cd11398766dd32a641aaab1b9ab448b3124f4fe24c243
04db544825bf7de1ee259b687a060a57c2fae1044039ab74b7aae8e511dd90379e95dd3ed16283b3f4d2b85f27246face7c73307836a1a84a4db5679e7914ebe
97c9333151ea8fa7c28a4c769cde9ef723f363b602b1468cb5d159a05598fd5e8d200a0fab107f6a774c61171d202b66b8312a1a45ad3aab2f22d51fd3e17a52
8f7b8724f31a9e8c1250a7e9a95e2aa323f363b602b1468cb5d159a05598fd5e8d200a0fab107f6a774c61171d202b66b8312a1a45ad3aab2f22d51fd3e17a52
cb3de6a18d5d6014b511a41d3b9c21e6608e5066341ff6bde61166e05edde56fa0dc508fadf882249af659d8090e1ed2bd6338e3af7233c86458165167c43c26
d7072740a938f0e76796778f313a81b5bcf1ee82bdd45fd86d0ad17b3ef49a3d2ed4e03f3e56f24b8cef131fcf4336b7c2fae1044039ab7419de23aa3f9b60eb
$CDNENCFINISH
.ENDS SRLATCHRHP_BASIC_GEN 
*$
.SUBCKT BUF_BASIC_GEN A  Y PARAMS: VDD=1 VSS=0 VTHRESH=0.5  
$CDNENCSTART
eee8c5c7a2bc4b01f045f303678664e7916da0bae22e8cb0bba041dd67c69ce448ea70148a9ac1670c8926c1ac5057c8ccfcd77bf87ca9dcf430257fdad87a41
f305b7cfa07651615a9037c8c42a602b94aebb18efc1b73c4a0534bc16c6b751d67091752c09698a1541fe9d381cc675a36c87e87e29573113519a8a855bad68
608e5066341ff6bde61166e05edde56fa0dc508fadf882249af659d8090e1ed2bd6338e3af7233c86597e8a130d8d0e8782a1e33a062c0f61f7c0e8318ec0ea6
bd9831b9881f0b921b3d46da13888b1ec2fae1044039ab74b7aae8e511dd90379e95dd3ed16283b3f4d2b85f27246face7c73307836a1a84a4db5679e7914ebe
02f2959404528fbd5dd00b2186f9e93d8789378a6c80a283051a483e78d4786afc24b7887e925a41c18cd8c5d2693ec2600dc780cf415d020e6ff702acfd80bc
$CDNENCFINISH
.ENDS BUF_BASIC_GEN 
*$
.SUBCKT INV_DELAY_BASIC_GEN A  Y PARAMS: VDD=1 VSS=0 VTHRESH=0.5 DELAY = 10n  
$CDNENCSTART
eee8c5c7a2bc4b01f045f303678664e7916da0bae22e8cb0bba041dd67c69ce448ea70148a9ac1670c8926c1ac5057c8ccfcd77bf87ca9dcf430257fdad87a41
f305b7cfa0765161b7a8d0a5fa27600f87c337a6226f9c259ce2376dcef929e055e2d3dce1717d717ca80a2ba8175d7e413573ed95ba9f7070f497b56ae5be13
1eb5da1b1b220fdb8789378a6c80a283051a483e78d4786afc24b7887e925a41c18cd8c5d2693ec2600dc780cf415d022ebaf9394e79651cc1a65347e847e46c
bd9831b9881f0b92004c220067cfdabf680d2d7c8463c02aec178f095419e3ce4c3ec77b6553328e61d106c4077e2fd7b7f233935db61bac6671ae9c8dcbb78d
99cb3fa3ad4040ee39d350e60ca2338a85bb0abd135c8ea4b2c8ac76a93edd4cec178f095419e3ce4c3ec77b6553328e61d106c4077e2fd7ec7658cf4ff0ba1f
f305b7cfa0765161c36180965553170d8da13727b91264449ce2376dcef929e07d4a1829490ab8db9b0e7c0027d2abb96587de49e2c863ff5e776786199801a3
f477875b6b57c38623f363b602b1468cb5d159a05598fd5e8d200a0fab107f6a774c61171d202b66b8312a1a45ad3aab2728b733ec3644d1578720c8b6e1d16e
8d3568177ac8ace91f72e5a2e8c9f62423f363b602b1468cb5d159a05598fd5e8d200a0fab107f6a774c61171d202b66b8312a1a45ad3aab2f22d51fd3e17a52
042d1e8ae349b80fea1cd9c752f58bf3d0cf10be4769944ff21e73a70f43859a8ab92a32a73b6a0412165ab0fc5c6d2723699826d7e876b64a79d5ad43c246c8
$CDNENCFINISH
.ENDS INV_DELAY_BASIC_GEN 
*$

